%Chk=2,4-Diamino-6-hydroxypyrimidine.chk
#n AM1 Opt

 Title

0 1
C         -0.56680        1.06978       -0.00106
C          0.71033        1.18147        0.00016
N          1.37632       -0.01471        0.00192
C          0.63611       -1.09500        0.00167
N         -0.70478       -1.22120        0.00008
C         -1.40313       -0.07945       -0.00136
O         -2.61981        0.05434       -0.00290
N          1.36139       -2.32661        0.00338
N          1.39625        2.42026        0.00427
H         -1.07462        1.96819       -0.00197
H         -1.14537       -2.10161       -0.00001
H          2.34585       -2.31814        0.00460
H          0.87650       -3.18342        0.00334
H          0.88882        3.26391        0.00287
H          2.38059        2.43789        0.00854

